Replication/results/database/LoadFlow_AllBuses_Report.txt

======================================================================================================================
LOAD FLOW ON ALL BUSES AND BRANCHES
======================================================================================================================
Project: IEEE13 Yousaf2022 Replication   Study case: Study with Substation Transformer
AC load flow, unbalanced 3-phase (ABC).  Grid at bus SubstationHV.  22 buses, 23 branch elements.

======================================================================================================================
LOAD FLOW, DG DISCONNECTED  -  BRANCH FLOWS  (From node -> To node, away from the grid)
======================================================================================================================
Values at the From node.  + : power / current flows From -> To;  - : it flows To -> From.
  From node    | To node | Branch                              | I a (A) | I b (A) | I c (A) | P (kW)  | Q (kvar) | Loss (kW) | Active power flows 
  -------------+---------+-------------------------------------+---------+---------+---------+---------+----------+-----------+--------------------
  SubstationHV | 650     | TrSubstation (transformer)          | +18.6   | +20.7   | +23.3   | +3618.2 | +2003.3  | 35.15     | SubstationHV -> 650
  650          | RG60    | Vreg A+B+C (regulator)              | +592.7  | +431.9  | +628.1  | +3583.0 | +1722.0  | 0.00      | 650 -> RG60        
  RG60         | 632     | LOHL650-632 (line)                  | +557.9  | +411.3  | +587.7  | +3583.0 | +1722.0  | 59.50     | RG60 -> 632        
  632          | 633     | LOHL632-633 (line)                  | +81.0   | +60.6   | +62.8   | +406.3  | +301.1   | 0.91      | 632 -> 633         
  632          | 645     | LOHL632-645 (line)                  | -       | +143.1  | +66.1   | +420.9  | +269.8   | 3.38      | 632 -> 645         
  632          | nDL1    | LOHL632-671start (line)             | +478.1  | +212.2  | +475.7  | +2696.3 | +958.1   | 6.47      | 632 -> nDL1        
  633          | 634     | XFM-1 (transformer)                 | +81.0   | +60.6   | +62.8   | +405.4  | +299.9   | 5.40      | 633 -> 634         
  645          | 646     | LOHL645-646 (line)                  | -       | +66.1   | +66.1   | +247.6  | +142.2   | 0.56      | 645 -> 646         
  nDL1         | nDL2    | s2LOHL632-671 (line)                | +476.5  | +206.5  | +464.8  | +2649.8 | +914.5   | 6.28      | nDL1 -> nDL2       
  nDL2         | nDL     | s3LOHL632-671 (line)                | +474.9  | +200.8  | +453.8  | +2603.5 | +871.4   | 6.10      | nDL2 -> nDL        
  nDL          | nDL4    | s4LOHL632-671 (line)                | +473.3  | +195.2  | +442.9  | +2557.4 | +829.0   | 5.93      | nDL -> nDL4        
  nDL          | DL      | LDL (line)                          | +1.6    | +6.0    | +11.3   | +40.0   | +23.2    | 0.00      | nDL -> DL          
  nDL4         | nDL5    | s5LOHL632-671 (line)                | +471.6  | +189.6  | +431.8  | +2511.5 | +787.0   | 5.76      | nDL4 -> nDL5       
  nDL5         | 671     | LOHL632-671end (line)               | +470.0  | +184.0  | +420.8  | +2465.7 | +745.6   | 5.61      | nDL5 -> 671        
  671          | 684     | LOHL671-684 (line)                  | +63.0   | -       | +71.1   | +290.0  | +67.1    | 0.58      | 671 -> 684         
  671          | 680     | LOHL671-680 (line)                  | 0.0     | 0.0     | 0.0     | +0.0    | -0.0     | 0.00      | no flow            
  671          | 692     | Switch (switch)                     | +229.7  | +71.5   | +178.8  | +1015.1 | +0.7     | 0.00      | 671 -> 692         
  684          | 652     | LC684-652A (line)                   | +63.0   | -       | -       | +123.9  | +82.9    | 0.72      | 684 -> 652         
  684          | 611     | LOHL684-611 (line)                  | -       | -       | +71.1   | +165.5  | -16.3    | 0.39      | 684 -> 611         
  692          | 675     | LC692-675 (line)                    | +205.9  | +71.5   | +124.5  | +847.4  | -148.3   | 4.38      | 692 -> 675         
  692          | DG      | 2-Winding Transformer (transformer) | 0.0     | 0.0     | 0.0     | +0.0    | +0.0     | 0.00      | no flow            

Total branch losses: 147.1 kW.  Branches where the active power flows towards the grid: none.

======================================================================================================================
LOAD FLOW, DG DISCONNECTED  -  BUSES  (voltage per phase; load, capacitor and generation at the bus)
======================================================================================================================
  Bus          | Un (kV) | Va (pu) | Va (kV) | ang a  | Vb (pu) | Vb (kV) | ang b   | Vc (pu) | Vc (kV) | ang c  | Load P (kW) | Load Q (kvar) | Cap Q supplied (kvar) | Source P (kW) | Source Q (kvar)
  -------------+---------+---------+---------+--------+---------+---------+---------+---------+---------+--------+-------------+---------------+-----------------------+---------------+----------------
  SubstationHV | 115.00  | 1.0000  | 66.3953 | 0.00   | 1.0000  | 66.3956 | -120.00 | 1.0000  | 66.3949 | 120.00 | -           | -             | -                     | 3618.2        | 2003.3         
  650          | 4.16    | 0.9981  | 2.3973  | -33.34 | 1.0170  | 2.4426  | -152.65 | 0.9979  | 2.3967  | 86.35  | -           | -             | -                     | -             | -              
  RG60         | 4.16    | 1.0605  | 2.5471  | -33.34 | 1.0679  | 2.5648  | -152.65 | 1.0665  | 2.5615  | 86.35  | -           | -             | -                     | -             | -              
  632          | 4.16    | 1.0187  | 2.4466  | -35.92 | 1.0616  | 2.5497  | -154.32 | 1.0142  | 2.4358  | 84.22  | -           | -             | -                     | -             | -              
  633          | 4.16    | 1.0158  | 2.4396  | -35.93 | 1.0588  | 2.5429  | -154.38 | 1.0124  | 2.4315  | 84.18  | -           | -             | -                     | -             | -              
  645          | 4.16    | -       | -       | -      | 1.0540  | 2.5314  | -154.44 | 1.0106  | 2.4273  | 84.30  | 170.0       | 125.0         | -                     | -             | -              
  nDL1         | 4.16    | 1.0133  | 2.4337  | -36.38 | 1.0632  | 2.5536  | -154.43 | 1.0073  | 2.4192  | 83.90  | 40.0        | 23.2          | -                     | -             | -              
  634          | 0.48    | 0.9918  | 0.2749  | -36.60 | 1.0406  | 0.2884  | -154.82 | 0.9936  | 0.2754  | 83.69  | 400.0       | 290.0         | -                     | -             | -              
  646          | 4.16    | -       | -       | -      | 1.0522  | 2.5272  | -154.52 | 1.0085  | 2.4223  | 84.34  | 247.0       | 141.8         | -                     | -             | -              
  nDL2         | 4.16    | 1.0080  | 2.4210  | -36.83 | 1.0649  | 2.5576  | -154.55 | 1.0005  | 2.4030  | 83.59  | 40.0        | 23.2          | -                     | -             | -              
  nDL          | 4.16    | 1.0028  | 2.4084  | -37.29 | 1.0666  | 2.5617  | -154.65 | 0.9939  | 2.3872  | 83.28  | -           | -             | -                     | -             | -              
  nDL4         | 4.16    | 0.9977  | 2.3961  | -37.76 | 1.0684  | 2.5661  | -154.76 | 0.9875  | 2.3718  | 82.98  | 40.0        | 23.2          | -                     | -             | -              
  DL           | 4.16    | 1.0028  | 2.4084  | -37.29 | 1.0666  | 2.5617  | -154.65 | 0.9939  | 2.3872  | 83.28  | 40.0        | 23.2          | -                     | -             | -              
  nDL5         | 4.16    | 0.9926  | 2.3841  | -38.23 | 1.0703  | 2.5706  | -154.86 | 0.9813  | 2.3569  | 82.68  | 40.0        | 23.2          | -                     | -             | -              
  671          | 4.16    | 0.9877  | 2.3722  | -38.70 | 1.0722  | 2.5752  | -154.95 | 0.9753  | 2.3423  | 82.38  | 1155.0      | 660.0         | -                     | -             | -              
  684          | 4.16    | 0.9859  | 2.3679  | -38.72 | -       | -       | -       | 0.9732  | 2.3373  | 82.27  | -           | -             | -                     | -             | -              
  680          | 4.16    | 0.9877  | 2.3722  | -38.70 | 1.0722  | 2.5752  | -154.95 | 0.9753  | 2.3423  | 82.38  | -           | -             | -                     | -             | -              
  692          | 4.16    | 0.9877  | 2.3722  | -38.70 | 1.0722  | 2.5752  | -154.95 | 0.9753  | 2.3423  | 82.38  | 167.8       | 149.0         | -                     | -             | -              
  652          | 4.16    | 0.9811  | 2.3564  | -38.64 | -       | -       | -       | -       | -       | -      | 123.2       | 82.8          | -                     | -             | -              
  611          | 4.16    | -       | -       | -      | -       | -       | -       | 0.9712  | 2.3327  | 82.13  | 165.1       | 77.7          | 94.3                  | -             | -              
  675          | 4.16    | 0.9809  | 2.3558  | -39.06 | 1.0767  | 2.5859  | -155.12 | 0.9729  | 2.3367  | 82.49  | 843.0       | 462.0         | 613.6                 | -             | -              
  DG           | 0.69    | 1.0103  | 0.4025  | 174.64 | 1.0376  | 0.4133  | 52.23   | 0.9868  | 0.3931  | -67.95 | -           | -             | -                     | -             | -              

Voltages are phase-to-neutral.  Lowest feeder voltage 0.9712 pu at 611 phase c, highest 1.0767 pu at 675 phase b.
Total load 3471.1 kW / 2104.2 kvar; total branch losses 147.1 kW.
Grid supplies P 3618.2 kW, Q 2003.3 kvar.
Power balance at every bus (branches + loads + capacitors - sources): largest mismatch 0.02 kW/kvar at 684.

======================================================================================================================
LOAD FLOW, DG CONNECTED (4.05 MVA at 692)  -  BRANCH FLOWS  (From node -> To node, away from the grid)
======================================================================================================================
Values at the From node.  + : power / current flows From -> To;  - : it flows To -> From.
  From node    | To node | Branch                              | I a (A) | I b (A) | I c (A) | P (kW)  | Q (kvar) | Loss (kW) | Active power flows 
  -------------+---------+-------------------------------------+---------+---------+---------+---------+----------+-----------+--------------------
  SubstationHV | 650     | TrSubstation (transformer)          | -9.9    | +8.2    | +11.2   | +310.3  | +1900.6  | 7.91      | SubstationHV -> 650
  650          | RG60    | Vreg A+B+C (regulator)              | +281.2  | -195.1  | +304.5  | +302.3  | +1837.3  | 0.00      | 650 -> RG60        
  RG60         | 632     | LOHL650-632 (line)                  | +264.6  | -185.8  | +284.9  | +302.3  | +1837.3  | 14.02     | RG60 -> 632        
  632          | 633     | LOHL632-633 (line)                  | +78.8   | +60.3   | +61.3   | +406.1  | +300.6   | 0.88      | 632 -> 633         
  632          | 645     | LOHL632-645 (line)                  | -       | +143.2  | +66.7   | +425.6  | +272.5   | 3.39      | 632 -> 645         
  632          | nDL1    | LOHL632-671start (line)             | +210.3  | -233.3  | -179.3  | -543.3  | +1220.6  | 2.02      | nDL1 -> 632        
  633          | 634     | XFM-1 (transformer)                 | +78.8   | +60.3   | +61.3   | +405.2  | +299.5   | 5.18      | 633 -> 634         
  645          | 646     | LOHL645-646 (line)                  | -       | +66.7   | +66.7   | +252.2  | +144.9   | 0.57      | 645 -> 646         
  nDL1         | nDL2    | s2LOHL632-671 (line)                | +209.5  | -236.9  | -174.2  | -585.3  | +1191.8  | 2.00      | nDL2 -> nDL1       
  nDL2         | nDL     | s3LOHL632-671 (line)                | +208.7  | -240.6  | -169.7  | -627.3  | +1163.0  | 1.98      | nDL -> nDL2        
  nDL          | nDL4    | s4LOHL632-671 (line)                | +207.9  | -244.4  | -165.9  | -669.3  | +1134.2  | 1.97      | nDL4 -> nDL        
  nDL          | DL      | LDL (line)                          | +1.6    | +5.9    | +11.0   | +40.0   | +23.2    | 0.00      | nDL -> DL          
  nDL4         | nDL5    | s5LOHL632-671 (line)                | -207.1  | -248.2  | -162.7  | -711.3  | +1105.4  | 1.98      | nDL5 -> nDL4       
  nDL5         | 671     | LOHL632-671end (line)               | -206.3  | -252.2  | -160.2  | -753.3  | +1076.7  | 1.98      | 671 -> nDL5        
  671          | 684     | LOHL671-684 (line)                  | +65.9   | -       | +71.3   | +307.6  | +71.0    | 0.60      | 671 -> 684         
  671          | 680     | LOHL671-680 (line)                  | 0.0     | 0.0     | 0.0     | +0.0    | -0.0     | 0.00      | no flow            
  671          | 692     | Switch (switch)                     | -230.5  | -392.8  | -287.5  | -2217.8 | +340.1   | 0.00      | 692 -> 671         
  684          | 652     | LC684-652A (line)                   | +65.9   | -       | -       | +135.7  | +90.8    | 0.79      | 684 -> 652         
  684          | 611     | LOHL684-611 (line)                  | -       | -       | +71.3   | +171.3  | -20.3    | 0.39      | 684 -> 611         
  692          | 675     | LC692-675 (line)                    | +196.8  | +71.6   | +119.9  | +847.0  | -181.4   | 3.96      | 692 -> 675         
  692          | DG      | 2-Winding Transformer (transformer) | -430.8  | -421.7  | -455.3  | -3240.0 | +365.8   | 0.00      | DG -> 692          

Total branch losses: 49.6 kW.  Branches where the active power flows towards the grid: 632 -> nDL1, nDL1 -> nDL2, nDL2 -> nDL, nDL -> nDL4, nDL4 -> nDL5, nDL5 -> 671, 671 -> 692, 692 -> DG.

======================================================================================================================
LOAD FLOW, DG CONNECTED (4.05 MVA at 692)  -  BUSES  (voltage per phase; load, capacitor and generation at the bus)
======================================================================================================================
  Bus          | Un (kV) | Va (pu) | Va (kV) | ang a   | Vb (pu) | Vb (kV) | ang b   | Vc (pu) | Vc (kV) | ang c  | Load P (kW) | Load Q (kvar) | Cap Q supplied (kvar) | Source P (kW) | Source Q (kvar)
  -------------+---------+---------+---------+---------+---------+---------+---------+---------+---------+--------+-------------+---------------+-----------------------+---------------+----------------
  SubstationHV | 115.00  | 1.0000  | 66.3953 | 0.00    | 1.0000  | 66.3955 | -120.00 | 1.0000  | 66.3951 | 120.00 | -           | -             | -                     | 310.3         | 1900.6         
  650          | 4.16    | 1.0084  | 2.4220  | -30.25  | 1.0200  | 2.4498  | -149.62 | 1.0057  | 2.4155  | 89.66  | -           | -             | -                     | -             | -              
  RG60         | 4.16    | 1.0715  | 2.5734  | -30.25  | 1.0710  | 2.5723  | -149.62 | 1.0748  | 2.5815  | 89.66  | -           | -             | -                     | -             | -              
  632          | 4.16    | 1.0482  | 2.5176  | -30.64  | 1.0640  | 2.5554  | -149.06 | 1.0361  | 2.4886  | 89.95  | -           | -             | -                     | -             | -              
  633          | 4.16    | 1.0454  | 2.5108  | -30.64  | 1.0611  | 2.5485  | -149.13 | 1.0344  | 2.4845  | 89.91  | -           | -             | -                     | -             | -              
  645          | 4.16    | -       | -       | -       | 1.0563  | 2.5371  | -149.19 | 1.0325  | 2.4799  | 90.03  | 170.0       | 125.0         | -                     | -             | -              
  nDL1         | 4.16    | 1.0457  | 2.5115  | -30.71  | 1.0654  | 2.5588  | -148.81 | 1.0313  | 2.4770  | 90.06  | 40.0        | 23.2          | -                     | -             | -              
  634          | 0.48    | 1.0221  | 0.2833  | -31.28  | 1.0430  | 0.2890  | -149.57 | 1.0161  | 0.2816  | 89.45  | 400.0       | 290.0         | -                     | -             | -              
  646          | 4.16    | -       | -       | -       | 1.0546  | 2.5328  | -149.27 | 1.0304  | 2.4749  | 90.07  | 251.6       | 144.4         | -                     | -             | -              
  nDL2         | 4.16    | 1.0432  | 2.5054  | -30.79  | 1.0669  | 2.5624  | -148.54 | 1.0266  | 2.4657  | 90.18  | 40.0        | 23.2          | -                     | -             | -              
  nDL          | 4.16    | 1.0407  | 2.4995  | -30.86  | 1.0685  | 2.5663  | -148.28 | 1.0221  | 2.4549  | 90.31  | -           | -             | -                     | -             | -              
  nDL4         | 4.16    | 1.0382  | 2.4936  | -30.93  | 1.0702  | 2.5703  | -148.01 | 1.0177  | 2.4444  | 90.45  | 40.0        | 23.2          | -                     | -             | -              
  DL           | 4.16    | 1.0407  | 2.4995  | -30.86  | 1.0685  | 2.5663  | -148.28 | 1.0221  | 2.4549  | 90.31  | 40.0        | 23.2          | -                     | -             | -              
  nDL5         | 4.16    | 1.0358  | 2.4878  | -31.00  | 1.0720  | 2.5746  | -147.74 | 1.0135  | 2.4342  | 90.59  | 40.0        | 23.2          | -                     | -             | -              
  671          | 4.16    | 1.0334  | 2.4820  | -31.07  | 1.0738  | 2.5791  | -147.47 | 1.0094  | 2.4244  | 90.75  | 1155.0      | 660.0         | -                     | -             | -              
  684          | 4.16    | 1.0315  | 2.4774  | -31.10  | -       | -       | -       | 1.0074  | 2.4195  | 90.64  | -           | -             | -                     | -             | -              
  680          | 4.16    | 1.0334  | 2.4820  | -31.07  | 1.0738  | 2.5791  | -147.47 | 1.0094  | 2.4244  | 90.75  | -           | -             | -                     | -             | -              
  692          | 4.16    | 1.0334  | 2.4820  | -31.07  | 1.0738  | 2.5791  | -147.47 | 1.0094  | 2.4244  | 90.75  | 175.2       | 155.6         | -                     | -             | -              
  652          | 4.16    | 1.0265  | 2.4654  | -31.01  | -       | -       | -       | -       | -       | -      | 134.9       | 90.6          | -                     | -             | -              
  611          | 4.16    | -       | -       | -       | -       | -       | -       | 1.0055  | 2.4150  | 90.50  | 170.9       | 80.4          | 101.1                 | -             | -              
  675          | 4.16    | 1.0271  | 2.4669  | -31.41  | 1.0781  | 2.5893  | -147.63 | 1.0072  | 2.4191  | 90.83  | 843.0       | 462.0         | 646.3                 | -             | -              
  DG           | 0.69    | 1.0302  | 0.4104  | -172.43 | 1.0390  | 0.4139  | 67.08   | 1.0269  | 0.4091  | -53.10 | -           | -             | -                     | 3240.0        | 0.0            

Voltages are phase-to-neutral.  Lowest feeder voltage 1.0055 pu at 611 phase c, highest 1.0781 pu at 675 phase b.
Total load 3500.6 kW / 2124.1 kvar; total branch losses 49.6 kW.
Grid supplies P 310.3 kW, Q 1900.6 kvar.
DG supplies P 3240.0 kW, Q 0.0 kvar.
Power balance at every bus (branches + loads + capacitors - sources): largest mismatch 0.03 kW/kvar at 684.

======================================================================================================================
EFFECT OF THE DG ON THE BRANCH FLOWS  (P at the From node, kW)
======================================================================================================================
  From node    | To node | P DG out (kW) | P DG in (kW) | Change (kW) | Note                 
  -------------+---------+---------------+--------------+-------------+----------------------
  SubstationHV | 650     | +3618.2       | +310.3       | -3307.9     |                      
  650          | RG60    | +3583.0       | +302.3       | -3280.7     |                      
  RG60         | 632     | +3583.0       | +302.3       | -3280.7     |                      
  632          | 633     | +406.3        | +406.1       | -0.3        |                      
  632          | 645     | +420.9        | +425.6       | +4.6        |                      
  632          | nDL1    | +2696.3       | -543.3       | -3239.6     | REVERSED by the DG   
  633          | 634     | +405.4        | +405.2       | -0.2        |                      
  645          | 646     | +247.6        | +252.2       | +4.6        |                      
  nDL1         | nDL2    | +2649.8       | -585.3       | -3235.1     | REVERSED by the DG   
  nDL2         | nDL     | +2603.5       | -627.3       | -3230.9     | REVERSED by the DG   
  nDL          | nDL4    | +2557.4       | -669.3       | -3226.7     | REVERSED by the DG   
  nDL          | DL      | +40.0         | +40.0        | -0.0        |                      
  nDL4         | nDL5    | +2511.5       | -711.3       | -3222.8     | REVERSED by the DG   
  nDL5         | 671     | +2465.7       | -753.3       | -3219.0     | REVERSED by the DG   
  671          | 684     | +290.0        | +307.6       | +17.6       |                      
  671          | 680     | +0.0          | +0.0         | +0.0        |                      
  671          | 692     | +1015.1       | -2217.8      | -3233.0     | REVERSED by the DG   
  684          | 652     | +123.9        | +135.7       | +11.7       |                      
  684          | 611     | +165.5        | +171.3       | +5.8        |                      
  692          | 675     | +847.4        | +847.0       | -0.4        |                      
  692          | DG      | +0.0          | -3240.0      | -3240.0     | carries the DG output
